pcf
* control data
restart estimation
10 5166 1 0 136
1 136 single point
10 -3.0 0.3 0.01 10 0 lamforgive derforgive
10.0 10.0 0.001
0.1
50 0.001 4 4 0.01 4
1 1 1 reisaveitn
* singular value decomposition(?)
1
10 1e-7
1
* parameter groups
catch_scale relative 0.015 0 switch 2 parabolic
* parameter data
lw_fac log factor 1 0.8 1.1 catch_scale 1 0
sw_fac log factor 1 0.75 1.1 catch_scale 1 0
wind_fac log factor 1 0.5 1.5 catch_scale 1 0
cd tied factor 0.0016 0.0011 0.0018 catch_scale 1 0
ce log factor 0.0016 0.0011 0.0018 catch_scale 1 0
ch log factor 0.0016 0.0011 0.0018 catch_scale 1 0
kw log factor 0.45 0.1 1 catch_scale 1 0
inflow_fac log factor 0.5 0.1 1.3 catch_scale 1 0
outflow_fac tied factor 0.5 0.1 1.3 catch_scale 1 0
coef_mix_hyp log factor 2e-6 1e-7 4e-6 catch_scale 1 0
cd ce
outflow_fac inflow_fac
* observation groups
temp_0.5
temp_1
temp_2
temp_3
temp_4
temp_5
temp_6
temp_7
temp_8
temp_9
temp_10
temp_11
temp_12
temp_13
temp_14
temp_15
temp_16
temp_17
temp_18
temp_19
temp_20
temp_21
temp_22
temp_23
temp_24
temp_25
temp_26
temp_27
temp_28
temp_29
temp_30
temp_31
temp_32
temp_33
temp_34
temp_35
temp_36
temp_37
temp_38
temp_39
temp_40
temp_41
temp_42
temp_43
temp_44
temp_45
temp_46
temp_47
temp_48
temp_49
temp_50
temp_51
temp_52
temp_53
temp_54
temp_55
temp_56
temp_57
temp_58
temp_59
temp_60
temp_61
temp_62
temp_63
temp_64
temp_65
temp_66
oxy_0.5
oxy_1
oxy_2
oxy_3
oxy_4
oxy_5
oxy_6
oxy_7
oxy_8
oxy_9
oxy_10
oxy_11
oxy_12
oxy_13
oxy_14
oxy_15
oxy_16
oxy_17
oxy_18
oxy_19
oxy_20
oxy_21
oxy_22
oxy_23
oxy_24
oxy_25
oxy_26
oxy_27
oxy_28
oxy_29
oxy_30
oxy_31
oxy_32
oxy_33
oxy_34
oxy_35
oxy_36
oxy_37
oxy_38
oxy_39
oxy_40
oxy_41
oxy_42
oxy_43
oxy_44
oxy_45
oxy_46
oxy_47
oxy_48
oxy_49
oxy_50
oxy_51
oxy_52
oxy_53
oxy_54
oxy_55
oxy_56
oxy_57
oxy_58
oxy_59
oxy_60
oxy_61
oxy_62
oxy_63
oxy_64
oxy_65
oxy_66
* observation data
wqtemp_0.5_1     22.3     0.165895149     temp_0.5
wqtemp_0.5_2     25.2     0.165895149     temp_0.5
wqtemp_0.5_3     22.6     0.165895149     temp_0.5
wqtemp_0.5_4     19.2     0.165895149     temp_0.5
wqtemp_0.5_5     8.3     0.165895149     temp_0.5
wqtemp_0.5_6     22.9     0.165895149     temp_0.5
wqtemp_0.5_7     21.6     0.165895149     temp_0.5
wqtemp_0.5_8     22.2     0.165895149     temp_0.5
wqtemp_0.5_9     23.7     0.165895149     temp_0.5
wqtemp_0.5_10     23.4     0.165895149     temp_0.5
wqtemp_0.5_11     17.9     0.165895149     temp_0.5
wqtemp_0.5_12     3.1     0.165895149     temp_0.5
wqtemp_0.5_13     12.5     0.165895149     temp_0.5
wqtemp_0.5_14     20.9     0.165895149     temp_0.5
wqtemp_0.5_15     23.3     0.165895149     temp_0.5
wqtemp_0.5_16     25.5     0.165895149     temp_0.5
wqtemp_0.5_17     23.4     0.165895149     temp_0.5
wqtemp_0.5_18     20.6     0.165895149     temp_0.5
wqtemp_0.5_19     20.5     0.165895149     temp_0.5
wqtemp_0.5_20     3.1     0.165895149     temp_0.5
wqtemp_0.5_21     12.3     0.165895149     temp_0.5
wqtemp_0.5_22     21.5     0.165895149     temp_0.5
wqtemp_0.5_23     24.2     0.165895149     temp_0.5
wqtemp_0.5_24     26.5     0.165895149     temp_0.5
wqtemp_0.5_25     25.6     0.165895149     temp_0.5
wqtemp_0.5_26     24     0.165895149     temp_0.5
wqtemp_0.5_27     22.1     0.165895149     temp_0.5
wqtemp_0.5_28     3.3     0.165895149     temp_0.5
wqtemp_0.5_29     9.7     0.165895149     temp_0.5
wqtemp_0.5_30     19.4     0.165895149     temp_0.5
wqtemp_0.5_31     24.8     0.165895149     temp_0.5
wqtemp_0.5_32     23.7     0.165895149     temp_0.5
wqtemp_0.5_33     23.1     0.165895149     temp_0.5
wqtemp_0.5_34     22.6     0.165895149     temp_0.5
wqtemp_0.5_35     21.1     0.165895149     temp_0.5
wqtemp_0.5_36     22.9     0.165895149     temp_0.5
wqtemp_0.5_37     14.1     0.165895149     temp_0.5
wqtemp_0.5_38     3.4     0.165895149     temp_0.5
wqtemp_0.5_39     13.2     0.165895149     temp_0.5
wqtemp_0.5_40     20.2     0.165895149     temp_0.5
wqtemp_0.5_41     25.4     0.165895149     temp_0.5
wqtemp_0.5_42     24.99     0.165895149     temp_0.5
wqtemp_0.5_43     24.14     0.165895149     temp_0.5
wqtemp_0.5_44     24.3     0.165895149     temp_0.5
wqtemp_0.5_45     21.5     0.165895149     temp_0.5
wqtemp_1_1     22.3     0.165895149     temp_1
wqtemp_1_2     25.2     0.165895149     temp_1
wqtemp_1_3     22.6     0.165895149     temp_1
wqtemp_1_4     19.2     0.165895149     temp_1
wqtemp_1_5     1.3     0.165895149     temp_1
wqtemp_1_6     7.8     0.165895149     temp_1
wqtemp_1_7     22.9     0.165895149     temp_1
wqtemp_1_8     21.5     0.165895149     temp_1
wqtemp_1_9     22.3     0.165895149     temp_1
wqtemp_1_10     23.8     0.165895149     temp_1
wqtemp_1_11     23.2     0.165895149     temp_1
wqtemp_1_12     17.9     0.165895149     temp_1
wqtemp_1_13     3.1     0.165895149     temp_1
wqtemp_1_14     12.5     0.165895149     temp_1
wqtemp_1_15     20.3     0.165895149     temp_1
wqtemp_1_16     22.8     0.165895149     temp_1
wqtemp_1_17     25.4     0.165895149     temp_1
wqtemp_1_18     23.4     0.165895149     temp_1
wqtemp_1_19     20.6     0.165895149     temp_1
wqtemp_1_20     20.4     0.165895149     temp_1
wqtemp_1_21     3.1     0.165895149     temp_1
wqtemp_1_22     11     0.165895149     temp_1
wqtemp_1_23     21.5     0.165895149     temp_1
wqtemp_1_24     24.2     0.165895149     temp_1
wqtemp_1_25     26.4     0.165895149     temp_1
wqtemp_1_26     25.6     0.165895149     temp_1
wqtemp_1_27     24     0.165895149     temp_1
wqtemp_1_28     22.1     0.165895149     temp_1
wqtemp_1_29     3.3     0.165895149     temp_1
wqtemp_1_30     9.5     0.165895149     temp_1
wqtemp_1_31     18.7     0.165895149     temp_1
wqtemp_1_32     24.6     0.165895149     temp_1
wqtemp_1_33     23.7     0.165895149     temp_1
wqtemp_1_34     23     0.165895149     temp_1
wqtemp_1_35     22.6     0.165895149     temp_1
wqtemp_1_36     20.6     0.165895149     temp_1
wqtemp_1_37     22.7     0.165895149     temp_1
wqtemp_1_38     14.2     0.165895149     temp_1
wqtemp_1_39     3.4     0.165895149     temp_1
wqtemp_1_40     13.2     0.165895149     temp_1
wqtemp_1_41     20.2     0.165895149     temp_1
wqtemp_1_42     25.3     0.165895149     temp_1
wqtemp_1_43     24.93     0.165895149     temp_1
wqtemp_1_44     24.13     0.165895149     temp_1
wqtemp_1_45     24.29     0.165895149     temp_1
wqtemp_1_46     21.5     0.165895149     temp_1
wqtemp_2_1     22.1     0.165895149     temp_2
wqtemp_2_2     25.2     0.165895149     temp_2
wqtemp_2_3     22.6     0.165895149     temp_2
wqtemp_2_4     19.2     0.165895149     temp_2
wqtemp_2_5     1.4     0.165895149     temp_2
wqtemp_2_6     7.7     0.165895149     temp_2
wqtemp_2_7     22.8     0.165895149     temp_2
wqtemp_2_8     21.5     0.165895149     temp_2
wqtemp_2_9     22.2     0.165895149     temp_2
wqtemp_2_10     23.7     0.165895149     temp_2
wqtemp_2_11     23.2     0.165895149     temp_2
wqtemp_2_12     17.9     0.165895149     temp_2
wqtemp_2_13     3.1     0.165895149     temp_2
wqtemp_2_14     12     0.165895149     temp_2
wqtemp_2_15     20.1     0.165895149     temp_2
wqtemp_2_16     22.5     0.165895149     temp_2
wqtemp_2_17     25.2     0.165895149     temp_2
wqtemp_2_18     23.4     0.165895149     temp_2
wqtemp_2_19     20.6     0.165895149     temp_2
wqtemp_2_20     20.4     0.165895149     temp_2
wqtemp_2_21     3.1     0.165895149     temp_2
wqtemp_2_22     9.9     0.165895149     temp_2
wqtemp_2_23     21.5     0.165895149     temp_2
wqtemp_2_24     24     0.165895149     temp_2
wqtemp_2_25     26.3     0.165895149     temp_2
wqtemp_2_26     25.5     0.165895149     temp_2
wqtemp_2_27     23.9     0.165895149     temp_2
wqtemp_2_28     22.1     0.165895149     temp_2
wqtemp_2_29     3.3     0.165895149     temp_2
wqtemp_2_30     9     0.165895149     temp_2
wqtemp_2_31     18.3     0.165895149     temp_2
wqtemp_2_32     23.8     0.165895149     temp_2
wqtemp_2_33     23.7     0.165895149     temp_2
wqtemp_2_34     23     0.165895149     temp_2
wqtemp_2_35     22.6     0.165895149     temp_2
wqtemp_2_36     19.7     0.165895149     temp_2
wqtemp_2_37     22.5     0.165895149     temp_2
wqtemp_2_38     14.2     0.165895149     temp_2
wqtemp_2_39     3.4     0.165895149     temp_2
wqtemp_2_40     13     0.165895149     temp_2
wqtemp_2_41     20     0.165895149     temp_2
wqtemp_2_42     25.2     0.165895149     temp_2
wqtemp_2_43     24.7     0.165895149     temp_2
wqtemp_2_44     24.13     0.165895149     temp_2
wqtemp_2_45     24.25     0.165895149     temp_2
wqtemp_2_46     21.5     0.165895149     temp_2
wqtemp_3_1     21.8     0.165895149     temp_3
wqtemp_3_2     25.1     0.165895149     temp_3
wqtemp_3_3     22.6     0.165895149     temp_3
wqtemp_3_4     19.2     0.165895149     temp_3
wqtemp_3_5     1.5     0.165895149     temp_3
wqtemp_3_6     7.5     0.165895149     temp_3
wqtemp_3_7     22.6     0.165895149     temp_3
wqtemp_3_8     21.4     0.165895149     temp_3
wqtemp_3_9     22.2     0.165895149     temp_3
wqtemp_3_10     23.8     0.165895149     temp_3
wqtemp_3_11     23.1     0.165895149     temp_3
wqtemp_3_12     17.9     0.165895149     temp_3
wqtemp_3_13     3.1     0.165895149     temp_3
wqtemp_3_14     11.3     0.165895149     temp_3
wqtemp_3_15     20     0.165895149     temp_3
wqtemp_3_16     22.4     0.165895149     temp_3
wqtemp_3_17     25     0.165895149     temp_3
wqtemp_3_18     23.4     0.165895149     temp_3
wqtemp_3_19     20.6     0.165895149     temp_3
wqtemp_3_20     20.4     0.165895149     temp_3
wqtemp_3_21     3.1     0.165895149     temp_3
wqtemp_3_22     9.5     0.165895149     temp_3
wqtemp_3_23     21.5     0.165895149     temp_3
wqtemp_3_24     23.8     0.165895149     temp_3
wqtemp_3_25     25.8     0.165895149     temp_3
wqtemp_3_26     25.5     0.165895149     temp_3
wqtemp_3_27     23.8     0.165895149     temp_3
wqtemp_3_28     22.1     0.165895149     temp_3
wqtemp_3_29     3.2     0.165895149     temp_3
wqtemp_3_30     8.8     0.165895149     temp_3
wqtemp_3_31     18     0.165895149     temp_3
wqtemp_3_32     23.7     0.165895149     temp_3
wqtemp_3_33     23.7     0.165895149     temp_3
wqtemp_3_34     22.9     0.165895149     temp_3
wqtemp_3_35     22.6     0.165895149     temp_3
wqtemp_3_36     19.5     0.165895149     temp_3
wqtemp_3_37     22.5     0.165895149     temp_3
wqtemp_3_38     14.2     0.165895149     temp_3
wqtemp_3_39     3.5     0.165895149     temp_3
wqtemp_3_40     12.9     0.165895149     temp_3
wqtemp_3_41     19.9     0.165895149     temp_3
wqtemp_3_42     25.2     0.165895149     temp_3
wqtemp_3_43     24.65     0.165895149     temp_3
wqtemp_3_44     24.15     0.165895149     temp_3
wqtemp_3_45     24.2     0.165895149     temp_3
wqtemp_3_46     21.5     0.165895149     temp_3
wqtemp_4_1     21.2     0.165895149     temp_4
wqtemp_4_2     25     0.165895149     temp_4
wqtemp_4_3     22.6     0.165895149     temp_4
wqtemp_4_4     19.2     0.165895149     temp_4
wqtemp_4_5     1.5     0.165895149     temp_4
wqtemp_4_6     7.4     0.165895149     temp_4
wqtemp_4_7     22.4     0.165895149     temp_4
wqtemp_4_8     21.4     0.165895149     temp_4
wqtemp_4_9     22.2     0.165895149     temp_4
wqtemp_4_10     23.8     0.165895149     temp_4
wqtemp_4_11     23     0.165895149     temp_4
wqtemp_4_12     17.8     0.165895149     temp_4
wqtemp_4_13     3.1     0.165895149     temp_4
wqtemp_4_14     10.5     0.165895149     temp_4
wqtemp_4_15     19.5     0.165895149     temp_4
wqtemp_4_16     22.3     0.165895149     temp_4
wqtemp_4_17     24.6     0.165895149     temp_4
wqtemp_4_18     23.4     0.165895149     temp_4
wqtemp_4_19     20.6     0.165895149     temp_4
wqtemp_4_20     20.3     0.165895149     temp_4
wqtemp_4_21     3.1     0.165895149     temp_4
wqtemp_4_22     9.3     0.165895149     temp_4
wqtemp_4_23     21.5     0.165895149     temp_4
wqtemp_4_24     23.6     0.165895149     temp_4
wqtemp_4_25     25.1     0.165895149     temp_4
wqtemp_4_26     25.5     0.165895149     temp_4
wqtemp_4_27     23.8     0.165895149     temp_4
wqtemp_4_28     22.1     0.165895149     temp_4
wqtemp_4_29     3.2     0.165895149     temp_4
wqtemp_4_30     8.8     0.165895149     temp_4
wqtemp_4_31     17.1     0.165895149     temp_4
wqtemp_4_32     23     0.165895149     temp_4
wqtemp_4_33     23.7     0.165895149     temp_4
wqtemp_4_34     22.9     0.165895149     temp_4
wqtemp_4_35     22.6     0.165895149     temp_4
wqtemp_4_36     19.4     0.165895149     temp_4
wqtemp_4_37     22.3     0.165895149     temp_4
wqtemp_4_38     14.2     0.165895149     temp_4
wqtemp_4_39     3.4     0.165895149     temp_4
wqtemp_4_40     12     0.165895149     temp_4
wqtemp_4_41     19.7     0.165895149     temp_4
wqtemp_4_42     25.1     0.165895149     temp_4
wqtemp_4_43     24.62     0.165895149     temp_4
wqtemp_4_44     24.14     0.165895149     temp_4
wqtemp_4_45     24.17     0.165895149     temp_4
wqtemp_4_46     21.5     0.165895149     temp_4
wqtemp_5_1     20.4     0.165895149     temp_5
wqtemp_5_2     24.8     0.165895149     temp_5
wqtemp_5_3     22.6     0.165895149     temp_5
wqtemp_5_4     19.1     0.165895149     temp_5
wqtemp_5_5     7.2     0.165895149     temp_5
wqtemp_5_6     22.3     0.165895149     temp_5
wqtemp_5_7     21.3     0.165895149     temp_5
wqtemp_5_8     22.2     0.165895149     temp_5
wqtemp_5_9     23.8     0.165895149     temp_5
wqtemp_5_10     23     0.165895149     temp_5
wqtemp_5_11     17.8     0.165895149     temp_5
wqtemp_5_12     3.1     0.165895149     temp_5
wqtemp_5_13     10.3     0.165895149     temp_5
wqtemp_5_14     19.3     0.165895149     temp_5
wqtemp_5_15     22.2     0.165895149     temp_5
wqtemp_5_16     24.5     0.165895149     temp_5
wqtemp_5_17     23.4     0.165895149     temp_5
wqtemp_5_18     20.6     0.165895149     temp_5
wqtemp_5_19     20.3     0.165895149     temp_5
wqtemp_5_20     3     0.165895149     temp_5
wqtemp_5_21     9     0.165895149     temp_5
wqtemp_5_22     21.4     0.165895149     temp_5
wqtemp_5_23     23.4     0.165895149     temp_5
wqtemp_5_24     24.9     0.165895149     temp_5
wqtemp_5_25     25.5     0.165895149     temp_5
wqtemp_5_26     23.8     0.165895149     temp_5
wqtemp_5_27     22.1     0.165895149     temp_5
wqtemp_5_28     3.2     0.165895149     temp_5
wqtemp_5_29     8.7     0.165895149     temp_5
wqtemp_5_30     15.6     0.165895149     temp_5
wqtemp_5_31     22.9     0.165895149     temp_5
wqtemp_5_32     23.7     0.165895149     temp_5
wqtemp_5_33     22.9     0.165895149     temp_5
wqtemp_5_34     22.6     0.165895149     temp_5
wqtemp_5_35     19.2     0.165895149     temp_5
wqtemp_5_36     22.1     0.165895149     temp_5
wqtemp_5_37     14.2     0.165895149     temp_5
wqtemp_5_38     3.5     0.165895149     temp_5
wqtemp_5_39     11.8     0.165895149     temp_5
wqtemp_5_40     18.7     0.165895149     temp_5
wqtemp_5_41     25     0.165895149     temp_5
wqtemp_5_42     24.57     0.165895149     temp_5
wqtemp_5_43     24.14     0.165895149     temp_5
wqtemp_5_44     24.16     0.165895149     temp_5
wqtemp_5_45     21.3     0.165895149     temp_5
wqtemp_6_1     20     0.165895149     temp_6
wqtemp_6_2     24.8     0.165895149     temp_6
wqtemp_6_3     22.6     0.165895149     temp_6
wqtemp_6_4     19.1     0.165895149     temp_6
wqtemp_6_5     1.5     0.165895149     temp_6
wqtemp_6_6     6.9     0.165895149     temp_6
wqtemp_6_7     22.3     0.165895149     temp_6
wqtemp_6_8     21.2     0.165895149     temp_6
wqtemp_6_9     22.2     0.165895149     temp_6
wqtemp_6_10     23.7     0.165895149     temp_6
wqtemp_6_11     23     0.165895149     temp_6
wqtemp_6_12     17.8     0.165895149     temp_6
wqtemp_6_13     3.1     0.165895149     temp_6
wqtemp_6_14     10.3     0.165895149     temp_6
wqtemp_6_15     18.9     0.165895149     temp_6
wqtemp_6_16     22.2     0.165895149     temp_6
wqtemp_6_17     24.4     0.165895149     temp_6
wqtemp_6_18     23.3     0.165895149     temp_6
wqtemp_6_19     20.6     0.165895149     temp_6
wqtemp_6_20     20.3     0.165895149     temp_6
wqtemp_6_21     3     0.165895149     temp_6
wqtemp_6_22     8.8     0.165895149     temp_6
wqtemp_6_23     20.7     0.165895149     temp_6
wqtemp_6_24     23.2     0.165895149     temp_6
wqtemp_6_25     24.9     0.165895149     temp_6
wqtemp_6_26     25.4     0.165895149     temp_6
wqtemp_6_27     23.8     0.165895149     temp_6
wqtemp_6_28     22.1     0.165895149     temp_6
wqtemp_6_29     3.2     0.165895149     temp_6
wqtemp_6_30     8.5     0.165895149     temp_6
wqtemp_6_31     12.7     0.165895149     temp_6
wqtemp_6_32     22.1     0.165895149     temp_6
wqtemp_6_33     23.7     0.165895149     temp_6
wqtemp_6_34     22.9     0.165895149     temp_6
wqtemp_6_35     22.6     0.165895149     temp_6
wqtemp_6_36     19.2     0.165895149     temp_6
wqtemp_6_37     21.2     0.165895149     temp_6
wqtemp_6_38     14.2     0.165895149     temp_6
wqtemp_6_39     3.4     0.165895149     temp_6
wqtemp_6_40     11     0.165895149     temp_6
wqtemp_6_41     15.9     0.165895149     temp_6
wqtemp_6_42     24.9     0.165895149     temp_6
wqtemp_6_43     24.37     0.165895149     temp_6
wqtemp_6_44     24.12     0.165895149     temp_6
wqtemp_6_45     24.15     0.165895149     temp_6
wqtemp_6_46     21.3     0.165895149     temp_6
wqtemp_7_1     18.2     0.165895149     temp_7
wqtemp_7_2     23.9     0.165895149     temp_7
wqtemp_7_3     22.6     0.165895149     temp_7
wqtemp_7_4     19.1     0.165895149     temp_7
wqtemp_7_5     6.4     0.165895149     temp_7
wqtemp_7_6     22.2     0.165895149     temp_7
wqtemp_7_7     21.2     0.165895149     temp_7
wqtemp_7_8     22.2     0.165895149     temp_7
wqtemp_7_9     21.6     0.165895149     temp_7
wqtemp_7_10     23     0.165895149     temp_7
wqtemp_7_11     17.8     0.165895149     temp_7
wqtemp_7_12     3.1     0.165895149     temp_7
wqtemp_7_13     10.2     0.165895149     temp_7
wqtemp_7_14     18.6     0.165895149     temp_7
wqtemp_7_15     22.1     0.165895149     temp_7
wqtemp_7_16     23.9     0.165895149     temp_7
wqtemp_7_17     23.1     0.165895149     temp_7
wqtemp_7_18     20.6     0.165895149     temp_7
wqtemp_7_19     20.3     0.165895149     temp_7
wqtemp_7_20     3.1     0.165895149     temp_7
wqtemp_7_21     8.8     0.165895149     temp_7
wqtemp_7_22     19.5     0.165895149     temp_7
wqtemp_7_23     23     0.165895149     temp_7
wqtemp_7_24     24.7     0.165895149     temp_7
wqtemp_7_25     25.3     0.165895149     temp_7
wqtemp_7_26     23.8     0.165895149     temp_7
wqtemp_7_27     22.1     0.165895149     temp_7
wqtemp_7_28     3.2     0.165895149     temp_7
wqtemp_7_29     8.1     0.165895149     temp_7
wqtemp_7_30     11.7     0.165895149     temp_7
wqtemp_7_31     20.8     0.165895149     temp_7
wqtemp_7_32     23.7     0.165895149     temp_7
wqtemp_7_33     22.8     0.165895149     temp_7
wqtemp_7_34     22.6     0.165895149     temp_7
wqtemp_7_35     19.2     0.165895149     temp_7
wqtemp_7_36     20.9     0.165895149     temp_7
wqtemp_7_37     14.2     0.165895149     temp_7
wqtemp_7_38     10.7     0.165895149     temp_7
wqtemp_7_39     14.7     0.165895149     temp_7
wqtemp_7_40     23.9     0.165895149     temp_7
wqtemp_7_41     23.86     0.165895149     temp_7
wqtemp_7_42     23.57     0.165895149     temp_7
wqtemp_7_43     24.13     0.165895149     temp_7
wqtemp_7_44     21.2     0.165895149     temp_7
wqtemp_8_1     15     0.165895149     temp_8
wqtemp_8_2     20     0.165895149     temp_8
wqtemp_8_3     22.3     0.165895149     temp_8
wqtemp_8_4     19.1     0.165895149     temp_8
wqtemp_8_5     1.5     0.165895149     temp_8
wqtemp_8_6     6.2     0.165895149     temp_8
wqtemp_8_7     22     0.165895149     temp_8
wqtemp_8_8     21.2     0.165895149     temp_8
wqtemp_8_9     22.2     0.165895149     temp_8
wqtemp_8_10     21.1     0.165895149     temp_8
wqtemp_8_11     22.2     0.165895149     temp_8
wqtemp_8_12     17.7     0.165895149     temp_8
wqtemp_8_13     3.1     0.165895149     temp_8
wqtemp_8_14     10     0.165895149     temp_8
wqtemp_8_15     17.4     0.165895149     temp_8
wqtemp_8_16     20.7     0.165895149     temp_8
wqtemp_8_17     23     0.165895149     temp_8
wqtemp_8_18     22.4     0.165895149     temp_8
wqtemp_8_19     20.6     0.165895149     temp_8
wqtemp_8_20     20.3     0.165895149     temp_8
wqtemp_8_21     3.1     0.165895149     temp_8
wqtemp_8_22     8.8     0.165895149     temp_8
wqtemp_8_23     17.4     0.165895149     temp_8
wqtemp_8_24     22.6     0.165895149     temp_8
wqtemp_8_25     24.6     0.165895149     temp_8
wqtemp_8_26     23.1     0.165895149     temp_8
wqtemp_8_27     23.8     0.165895149     temp_8
wqtemp_8_28     22.1     0.165895149     temp_8
wqtemp_8_29     3.2     0.165895149     temp_8
wqtemp_8_30     8     0.165895149     temp_8
wqtemp_8_31     10.9     0.165895149     temp_8
wqtemp_8_32     19.9     0.165895149     temp_8
wqtemp_8_33     23.1     0.165895149     temp_8
wqtemp_8_34     22.6     0.165895149     temp_8
wqtemp_8_35     22.4     0.165895149     temp_8
wqtemp_8_36     19.1     0.165895149     temp_8
wqtemp_8_37     20.8     0.165895149     temp_8
wqtemp_8_38     14.2     0.165895149     temp_8
wqtemp_8_39     3.4     0.165895149     temp_8
wqtemp_8_40     9.9     0.165895149     temp_8
wqtemp_8_41     13.8     0.165895149     temp_8
wqtemp_8_42     20.2     0.165895149     temp_8
wqtemp_8_43     22.82     0.165895149     temp_8
wqtemp_8_44     21.78     0.165895149     temp_8
wqtemp_8_45     23.77     0.165895149     temp_8
wqtemp_8_46     21.2     0.165895149     temp_8
wqtemp_9_1     13.4     0.165895149     temp_9
wqtemp_9_2     17.7     0.165895149     temp_9
wqtemp_9_3     19     0.165895149     temp_9
wqtemp_9_4     19.1     0.165895149     temp_9
wqtemp_9_5     5.9     0.165895149     temp_9
wqtemp_9_6     18.9     0.165895149     temp_9
wqtemp_9_7     20.1     0.165895149     temp_9
wqtemp_9_8     21.7     0.165895149     temp_9
wqtemp_9_9     20.1     0.165895149     temp_9
wqtemp_9_10     20.8     0.165895149     temp_9
wqtemp_9_11     17.6     0.165895149     temp_9
wqtemp_9_12     3.1     0.165895149     temp_9
wqtemp_9_13     9.6     0.165895149     temp_9
wqtemp_9_14     16.4     0.165895149     temp_9
wqtemp_9_15     18.8     0.165895149     temp_9
wqtemp_9_16     21.5     0.165895149     temp_9
wqtemp_9_17     21     0.165895149     temp_9
wqtemp_9_18     20.6     0.165895149     temp_9
wqtemp_9_19     20.3     0.165895149     temp_9
wqtemp_9_20     3.1     0.165895149     temp_9
wqtemp_9_21     8.6     0.165895149     temp_9
wqtemp_9_22     15.5     0.165895149     temp_9
wqtemp_9_23     19.9     0.165895149     temp_9
wqtemp_9_24     22.6     0.165895149     temp_9
wqtemp_9_25     21.2     0.165895149     temp_9
wqtemp_9_26     23.7     0.165895149     temp_9
wqtemp_9_27     22.1     0.165895149     temp_9
wqtemp_9_28     3.2     0.165895149     temp_9
wqtemp_9_29     7.4     0.165895149     temp_9
wqtemp_9_30     10.8     0.165895149     temp_9
wqtemp_9_31     18.8     0.165895149     temp_9
wqtemp_9_32     21.2     0.165895149     temp_9
wqtemp_9_33     21.2     0.165895149     temp_9
wqtemp_9_34     20.1     0.165895149     temp_9
wqtemp_9_35     19     0.165895149     temp_9
wqtemp_9_36     20.1     0.165895149     temp_9
wqtemp_9_37     14.2     0.165895149     temp_9
wqtemp_9_38     9.7     0.165895149     temp_9
wqtemp_9_39     13.7     0.165895149     temp_9
wqtemp_9_40     17.9     0.165895149     temp_9
wqtemp_9_41     17.36     0.165895149     temp_9
wqtemp_9_42     21.37     0.165895149     temp_9
wqtemp_9_43     20.8     0.165895149     temp_9
wqtemp_9_44     20.9     0.165895149     temp_9
wqtemp_10_1     11.6     0.165895149     temp_10
wqtemp_10_2     14.7     0.165895149     temp_10
wqtemp_10_3     13     0.165895149     temp_10
wqtemp_10_4     19     0.165895149     temp_10
wqtemp_10_5     1.5     0.165895149     temp_10
wqtemp_10_6     5.9     0.165895149     temp_10
wqtemp_10_7     13.9     0.165895149     temp_10
wqtemp_10_8     17.7     0.165895149     temp_10
wqtemp_10_9     20.8     0.165895149     temp_10
wqtemp_10_10     17.9     0.165895149     temp_10
wqtemp_10_11     18.5     0.165895149     temp_10
wqtemp_10_12     17.5     0.165895149     temp_10
wqtemp_10_13     3.1     0.165895149     temp_10
wqtemp_10_14     9.2     0.165895149     temp_10
wqtemp_10_15     15     0.165895149     temp_10
wqtemp_10_16     16.4     0.165895149     temp_10
wqtemp_10_17     15.8     0.165895149     temp_10
wqtemp_10_18     16.2     0.165895149     temp_10
wqtemp_10_19     20.6     0.165895149     temp_10
wqtemp_10_20     20.3     0.165895149     temp_10
wqtemp_10_21     3     0.165895149     temp_10
wqtemp_10_22     8.3     0.165895149     temp_10
wqtemp_10_23     12.9     0.165895149     temp_10
wqtemp_10_24     17.8     0.165895149     temp_10
wqtemp_10_25     20.2     0.165895149     temp_10
wqtemp_10_26     19.5     0.165895149     temp_10
wqtemp_10_27     23.1     0.165895149     temp_10
wqtemp_10_28     17.7     0.165895149     temp_10
wqtemp_10_29     3.2     0.165895149     temp_10
wqtemp_10_30     7.1     0.165895149     temp_10
wqtemp_10_31     10.7     0.165895149     temp_10
wqtemp_10_32     16     0.165895149     temp_10
wqtemp_10_33     19.2     0.165895149     temp_10
wqtemp_10_34     17.7     0.165895149     temp_10
wqtemp_10_35     17.8     0.165895149     temp_10
wqtemp_10_36     19     0.165895149     temp_10
wqtemp_10_37     19.1     0.165895149     temp_10
wqtemp_10_38     14.2     0.165895149     temp_10
wqtemp_10_39     3.4     0.165895149     temp_10
wqtemp_10_40     9.4     0.165895149     temp_10
wqtemp_10_41     12.5     0.165895149     temp_10
wqtemp_10_42     14.5     0.165895149     temp_10
wqtemp_10_43     14.9     0.165895149     temp_10
wqtemp_10_44     16.6     0.165895149     temp_10
wqtemp_10_45     17.7     0.165895149     temp_10
wqtemp_10_46     20.2     0.165895149     temp_10
wqtemp_11_1     10.9     0.165895149     temp_11
wqtemp_11_2     12.9     0.165895149     temp_11
wqtemp_11_3     11.7     0.165895149     temp_11
wqtemp_11_4     19     0.165895149     temp_11
wqtemp_11_5     5.7     0.165895149     temp_11
wqtemp_11_6     10.8     0.165895149     temp_11
wqtemp_11_7     14.3     0.165895149     temp_11
wqtemp_11_8     18.2     0.165895149     temp_11
wqtemp_11_9     14.1     0.165895149     temp_11
wqtemp_11_10     15.5     0.165895149     temp_11
wqtemp_11_11     17.1     0.165895149     temp_11
wqtemp_11_12     3.1     0.165895149     temp_11
wqtemp_11_13     8.7     0.165895149     temp_11
wqtemp_11_14     13.4     0.165895149     temp_11
wqtemp_11_15     14.9     0.165895149     temp_11
wqtemp_11_16     15.2     0.165895149     temp_11
wqtemp_11_17     14     0.165895149     temp_11
wqtemp_11_18     19.5     0.165895149     temp_11
wqtemp_11_19     19.9     0.165895149     temp_11
wqtemp_11_20     3.1     0.165895149     temp_11
wqtemp_11_21     7.9     0.165895149     temp_11
wqtemp_11_22     10.6     0.165895149     temp_11
wqtemp_11_23     15.3     0.165895149     temp_11
wqtemp_11_24     13.6     0.165895149     temp_11
wqtemp_11_25     15.8     0.165895149     temp_11
wqtemp_11_26     16     0.165895149     temp_11
wqtemp_11_27     16.8     0.165895149     temp_11
wqtemp_11_28     3.2     0.165895149     temp_11
wqtemp_11_29     6.9     0.165895149     temp_11
wqtemp_11_30     10.7     0.165895149     temp_11
wqtemp_11_31     14.8     0.165895149     temp_11
wqtemp_11_32     18     0.165895149     temp_11
wqtemp_11_33     15     0.165895149     temp_11
wqtemp_11_34     16.8     0.165895149     temp_11
wqtemp_11_35     18.8     0.165895149     temp_11
wqtemp_11_36     17.6     0.165895149     temp_11
wqtemp_11_37     14.2     0.165895149     temp_11
wqtemp_11_38     9.2     0.165895149     temp_11
wqtemp_11_39     11.1     0.165895149     temp_11
wqtemp_11_40     11.3     0.165895149     temp_11
wqtemp_11_41     12.76     0.165895149     temp_11
wqtemp_11_42     13.55     0.165895149     temp_11
wqtemp_11_43     13.24     0.165895149     temp_11
wqtemp_11_44     17.4     0.165895149     temp_11
wqtemp_12_1     10.5     0.165895149     temp_12
wqtemp_12_2     11.8     0.165895149     temp_12
wqtemp_12_3     10.2     0.165895149     temp_12
wqtemp_12_4     19     0.165895149     temp_12
wqtemp_12_5     1.5     0.165895149     temp_12
wqtemp_12_6     5.6     0.165895149     temp_12
wqtemp_12_7     9.2     0.165895149     temp_12
wqtemp_12_8     10.8     0.165895149     temp_12
wqtemp_12_9     13     0.165895149     temp_12
wqtemp_12_10     11.9     0.165895149     temp_12
wqtemp_12_11     11.7     0.165895149     temp_12
wqtemp_12_12     13.1     0.165895149     temp_12
wqtemp_12_13     3.1     0.165895149     temp_12
wqtemp_12_14     8.6     0.165895149     temp_12
wqtemp_12_15     11.3     0.165895149     temp_12
wqtemp_12_16     13.2     0.165895149     temp_12
wqtemp_12_17     13.8     0.165895149     temp_12
wqtemp_12_18     13     0.165895149     temp_12
wqtemp_12_19     14.9     0.165895149     temp_12
wqtemp_12_20     18.4     0.165895149     temp_12
wqtemp_12_21     3.1     0.165895149     temp_12
wqtemp_12_22     7.9     0.165895149     temp_12
wqtemp_12_23     9.5     0.165895149     temp_12
wqtemp_12_24     13.4     0.165895149     temp_12